LAMMPS (9 Oct 2012)
# 3d protein simulation

units real

timestep 2

dimension	3

boundary s s s
#boundary p p p

neighbor	10 bin
neigh_modify	delay 5

atom_modify sort 0 0.0

special_bonds fene

atom_style	peptide

bond_style harmonic

pair_style vexcluded 2 3.5 3.5

read_data data.testeo
  orthogonal box = (-200 -200 -200) to (200 200 200)
  153 atoms
  202 bonds

pair_coeff * * 0.0
pair_coeff 1 1 20.0 3.5 4.5
pair_coeff 1 4 20.0 3.5 4.5
pair_coeff 4 4 20.0 3.5 4.5
pair_coeff 3 3 20.0 3.5 3.5

velocity	all create 300.0 2349852

group		alpha_carbons id 1 4 7 10 13 16 19 22 25 28 31 34 37 40 43 46 49 52 55 58 61 64 67 70 73 76 79 82 85 88 91 94 97 100 103 106 109 112 115 118 121 124 127 130 133 136 139 142 145 148 151
51 atoms in group alpha_carbons

group		beta_atoms id 3 6 9 12 15 18 21 24 27 30 33 36 39 42 45 48 51 54 57 60 63 66 69 72 75 78 81 84 87 90 93 96 99 102 105 108 111 114 117 120 123 126 129 132 135 138 141 144 147 150 153
51 atoms in group beta_atoms

group		oxygens id 2 5 8 11 14 17 20 23 26 29 32 35 38 41 44 47 50 53 56 59 62 65 68 71 74 77 80 83 86 89 92 95 98 101 104 107 110 113 116 119 122 125 128 131 134 137 140 143 146 149 152
51 atoms in group oxygens

fix		  1 all nvt temp 300.0 300.0 1.0
fix		  2 alpha_carbons backbone beta_atoms oxygens fix_backbone_coeff.data testeo.seq
Chain flag on
Chi flag on
Rama flag on
Rama_P flag on
SSWeight flag on
ABC flag on
DebyeHuckel on
ABC flag on
AMH-Go flag on

#fix		  3 all fixprueba 10

variable    stepq equal step
#variable E_bond  equal emol

thermo		1
dump		1 all atom 10 dump.lammpstrj

dump_modify	1 sort id

#minimize 1.0e-4 1.0e-6 100 1000

reset_timestep	0
run		5000
Step Temp E_pair E_mol TotEng Press Volume
0          300    54.408864    955.49334     898.8149    -33253.58    10890.368
Averages over the last 2501 of 5001 rows, steps 2500 to 5000:
Temp E_pair E_mol TotEng Press Volume
279.216 1.70753 100.696 -59.2317 -329.684 10890.4
Loop time of 7.83614 on 1 procs for 5000 steps with 153 atoms

Pair  time (%) = 0.898888 (11.4711)
Bond  time (%) = 0.0961881 (1.22749)
Neigh time (%) = 0 (0)
Comm  time (%) = 0.00555038 (0.0708306)
Outpt time (%) = 0.503181 (6.42128)
Other time (%) = 6.33233 (80.8093)
